3088125
  -OEChem-08212605143D

 49 53  0     0  0  0  0  0  0999 V2000
   -0.4026    5.4711   -0.9991 Cl  0  0  0  0  0  0  0  0  0  0  0  0
    4.4377   -3.0289   -2.0246 S   0  0  0  0  0  0  0  0  0  0  0  0
   -0.3833   -2.5246   -0.4462 O   0  0  0  0  0  0  0  0  0  0  0  0
   -1.2609   -0.0221    0.8150 N   0  0  0  0  0  0  0  0  0  0  0  0
   -3.3097   -1.3026    0.7278 N   0  0  0  0  0  0  0  0  0  0  0  0
   -4.3399    1.0808   -0.4481 N   0  0  0  0  0  0  0  0  0  0  0  0
    1.6409   -1.8053    0.4335 N   0  0  0  0  0  0  0  0  0  0  0  0
    2.3837   -2.5079   -0.4857 N   0  0  0  0  0  0  0  0  0  0  0  0
    4.0450   -0.8856   -0.3061 N   0  0  0  0  0  0  0  0  0  0  0  0
   -0.8628    1.2475    0.4509 C   0  0  0  0  0  0  0  0  0  0  0  0
   -1.9752    1.8952   -0.0983 C   0  0  0  0  0  0  0  0  0  0  0  0
   -2.5820   -0.1972    0.5156 C   0  0  0  0  0  0  0  0  0  0  0  0
   -3.0518    0.9706   -0.0508 C   0  0  0  0  0  0  0  0  0  0  0  0
   -0.4097   -1.0224    1.4237 C   0  0  0  0  0  0  0  0  0  0  0  0
    0.3876    1.8659    0.5652 C   0  0  0  0  0  0  0  0  0  0  0  0
   -1.8318    3.2212   -0.5534 C   0  0  0  0  0  0  0  0  0  0  0  0
   -4.5860   -1.1901    0.3332 C   0  0  0  0  0  0  0  0  0  0  0  0
   -5.0977   -0.0072   -0.2509 C   0  0  0  0  0  0  0  0  0  0  0  0
    0.5046    3.1812    0.1071 C   0  0  0  0  0  0  0  0  0  0  0  0
   -0.5865    3.8503   -0.4437 C   0  0  0  0  0  0  0  0  0  0  0  0
    0.2631   -1.8754    0.3738 C   0  0  0  0  0  0  0  0  0  0  0  0
   -5.4373   -2.2774    0.5052 C   0  0  0  0  0  0  0  0  0  0  0  0
   -6.4349    0.0299   -0.6346 C   0  0  0  0  0  0  0  0  0  0  0  0
   -6.7746   -2.2259    0.1161 C   0  0  0  0  0  0  0  0  0  0  0  0
   -7.2755   -1.0673   -0.4564 C   0  0  0  0  0  0  0  0  0  0  0  0
    3.6423   -2.0809   -0.8928 C   0  0  0  0  0  0  0  0  0  0  0  0
    5.3157   -0.3343   -0.0053 C   0  0  0  0  0  0  0  0  0  0  0  0
    5.3886    0.9340    0.5440 C   0  0  0  0  0  0  0  0  0  0  0  0
    6.4536   -1.0772   -0.2674 C   0  0  0  0  0  0  0  0  0  0  0  0
    6.6390    1.4766    0.8403 C   0  0  0  0  0  0  0  0  0  0  0  0
    7.7039   -0.5345    0.0291 C   0  0  0  0  0  0  0  0  0  0  0  0
    7.7965    0.7424    0.5830 C   0  0  0  0  0  0  0  0  0  0  0  0
   -1.0241   -1.6688    2.0597 H   0  0  0  0  0  0  0  0  0  0  0  0
    0.3093   -0.5203    2.0782 H   0  0  0  0  0  0  0  0  0  0  0  0
    1.2457    1.3549    0.9885 H   0  0  0  0  0  0  0  0  0  0  0  0
   -2.6831    3.7425   -0.9834 H   0  0  0  0  0  0  0  0  0  0  0  0
    1.4704    3.6758    0.1878 H   0  0  0  0  0  0  0  0  0  0  0  0
   -5.0606   -3.1954    0.9529 H   0  0  0  0  0  0  0  0  0  0  0  0
   -6.8450    0.9319   -1.0856 H   0  0  0  0  0  0  0  0  0  0  0  0
   -7.4183   -3.0881    0.2610 H   0  0  0  0  0  0  0  0  0  0  0  0
   -8.3152   -1.0134   -0.7641 H   0  0  0  0  0  0  0  0  0  0  0  0
    2.1436   -1.3451    1.1850 H   0  0  0  0  0  0  0  0  0  0  0  0
    1.9748   -3.3661   -0.8414 H   0  0  0  0  0  0  0  0  0  0  0  0
    3.2747   -0.3087    0.0240 H   0  0  0  0  0  0  0  0  0  0  0  0
    4.4931    1.5143    0.7482 H   0  0  0  0  0  0  0  0  0  0  0  0
    6.4587   -2.0909   -0.6349 H   0  0  0  0  0  0  0  0  0  0  0  0
    6.7111    2.4705    1.2723 H   0  0  0  0  0  0  0  0  0  0  0  0
    8.6056   -1.1108   -0.1575 H   0  0  0  0  0  0  0  0  0  0  0  0
    8.7699    1.1635    0.8169 H   0  0  0  0  0  0  0  0  0  0  0  0
  1 20  1  0  0  0  0
  2 26  2  0  0  0  0
  3 21  2  0  0  0  0
  4 10  1  0  0  0  0
  4 12  1  0  0  0  0
  4 14  1  0  0  0  0
  5 12  2  0  0  0  0
  5 17  1  0  0  0  0
  6 13  2  0  0  0  0
  6 18  1  0  0  0  0
  7  8  1  0  0  0  0
  7 21  1  0  0  0  0
  7 42  1  0  0  0  0
  8 26  1  0  0  0  0
  8 43  1  0  0  0  0
  9 26  1  0  0  0  0
  9 27  1  0  0  0  0
  9 44  1  0  0  0  0
 10 11  2  0  0  0  0
 10 15  1  0  0  0  0
 11 13  1  0  0  0  0
 11 16  1  0  0  0  0
 12 13  1  0  0  0  0
 14 21  1  0  0  0  0
 14 33  1  0  0  0  0
 14 34  1  0  0  0  0
 15 19  2  0  0  0  0
 15 35  1  0  0  0  0
 16 20  2  0  0  0  0
 16 36  1  0  0  0  0
 17 18  1  0  0  0  0
 17 22  2  0  0  0  0
 18 23  2  0  0  0  0
 19 20  1  0  0  0  0
 19 37  1  0  0  0  0
 22 24  1  0  0  0  0
 22 38  1  0  0  0  0
 23 25  1  0  0  0  0
 23 39  1  0  0  0  0
 24 25  2  0  0  0  0
 24 40  1  0  0  0  0
 25 41  1  0  0  0  0
 27 28  2  0  0  0  0
 27 29  1  0  0  0  0
 28 30  1  0  0  0  0
 28 45  1  0  0  0  0
 29 31  2  0  0  0  0
 29 46  1  0  0  0  0
 30 32  2  0  0  0  0
 30 47  1  0  0  0  0
 31 32  1  0  0  0  0
 31 48  1  0  0  0  0
 32 49  1  0  0  0  0
M  END
> <PUBCHEM_COMPOUND_CID>
3088125

> <PUBCHEM_CONFORMER_RMSD>
1

> <PUBCHEM_CONFORMER_DIVERSEORDER>
3
179
74
140
2
167
105
92
37
91
104
62
135
99
136
48
9
112
87
84
109
5
88
59
44
180
127
61
32
182
187
1
57
132
108
117
79
98
128
18
125
95
142
116
69
189
10
19
157
6
75
122
53
25
90
34
101
131
73
11
145
153
17
107
156
72
193
133
110
191
65
185
63
66
24
184
161
181
21
134
47
138
150
194
171
54
106
121
119
164
26
100
70
186
155
147
97
178
192
56
20
162
154
163
46
141
13
173
175
55
28
114
111
85
148
196
42
129
51
93
22
60
176
130
30
139
52
35
137
27
33
190
39
188
183
146
170
64
124
29
197
36
198
103
4
177
118
14
126
58
77
160
89
158
195
40
94
168
50
174
68
78
23
151
7
113
96
45
38
115
67
80
15
82
8
172
159
16
31
149
143
12
43
144
166
76
120
123
41
86
81
165
49
83
71
102
152
169

> <PUBCHEM_MMFF94_PARTIAL_CHARGES>
46
1 -0.18
10 -0.15
12 0.11
13 0.26
14 0.32
15 -0.15
16 -0.15
17 0.31
18 0.31
19 -0.15
2 -0.38
20 0.18
21 0.57
22 -0.15
23 -0.15
24 -0.15
25 -0.15
26 0.5
27 0.12
28 -0.15
29 -0.15
3 -0.57
30 -0.15
31 -0.15
32 -0.15
35 0.15
36 0.15
37 0.15
38 0.15
39 0.15
4 0.05
40 0.15
41 0.15
42 0.37
43 0.37
44 0.37
45 0.15
46 0.15
47 0.15
48 0.15
49 0.15
5 -0.57
6 -0.57
7 -0.43
8 -0.43
9 -0.55

> <PUBCHEM_EFFECTIVE_ROTOR_COUNT>
7

> <PUBCHEM_PHARMACOPHORE_FEATURES>
12
1 2 acceptor
1 3 acceptor
1 6 acceptor
1 7 donor
1 8 donor
1 9 donor
3 4 5 12 cation
5 4 10 11 12 13 rings
6 10 11 15 16 19 20 rings
6 17 18 22 23 24 25 rings
6 27 28 29 30 31 32 rings
6 5 6 12 13 17 18 rings

> <PUBCHEM_HEAVY_ATOM_COUNT>
32

> <PUBCHEM_ATOM_DEF_STEREO_COUNT>
0

> <PUBCHEM_ATOM_UDEF_STEREO_COUNT>
0

> <PUBCHEM_BOND_DEF_STEREO_COUNT>
0

> <PUBCHEM_BOND_UDEF_STEREO_COUNT>
0

> <PUBCHEM_ISOTOPIC_ATOM_COUNT>
0

> <PUBCHEM_COMPONENT_COUNT>
1

> <PUBCHEM_CACTVS_TAUTO_COUNT>
6

> <PUBCHEM_CONFORMER_ID>
002F1EFD00000003

> <PUBCHEM_MMFF94_ENERGY>
95.2586

> <PUBCHEM_FEATURE_SELFOVERLAP>
62.744

> <PUBCHEM_SHAPE_FINGERPRINT>
10050765 1 18121215377437793370
10930396 42 18115848854878257760
11578080 2 16589965171924300975
11621639 179 17751620080833813421
11828532 37 18041849548473906026
12202916 173 18335135432209670186
13402501 40 18413106169859132136
13914758 101 15502648278534783046
14068700 675 18187367627651417164
14068700 686 18270121193320507790
14394314 77 18337675218059904961
14415361 349 17846209012375330959
14725015 67 18336255804699233808
14790565 3 17330273871273388673
14840074 17 17846212271690258580
150020 25 18413108338248112334
15276724 80 18196655090722605093
15419008 145 18262504890119511666
15444296 7 18271243940415303246
15961568 22 18409450276316389060
16087824 20 18264205813186540117
18608769 82 18342171193977517002
19611394 137 18043260225960963547
21197605 99 18342457050395726702
21344244 246 18122058973586508127
21403212 168 8430321225275151531
21703447 108 18266458694488062626
23559900 14 18337383938162727433
24771293 8 18343027709055997064
24771750 20 17829624098982240885
25019877 29 17632301198175624734
335352 9 18335692833740012861
3383291 50 18262235624717147394
4017518 198 17837780289454833420
4280585 95 18409166636644733395
4325135 7 17917992784804219134
46194498 28 17773602620665030158
497634 4 17773886310989679643
6004065 56 18339079418434735501
6086070 43 14996870769916962966
6138700 20 18335136518266430217
6669772 16 17979642552150359221

> <PUBCHEM_SHAPE_MULTIPOLES>
628.51
19.74
4.85
1.07
14.72
6.28
-0.23
-10.66
-0.05
-0.63
-2.01
0.73
-0.35
2.46

> <PUBCHEM_SHAPE_SELFOVERLAP>
1383.139

> <PUBCHEM_SHAPE_VOLUME>
343

> <PUBCHEM_COORDINATE_TYPE>
2
5
10

$$$$
